<additional>
    <tazs>
        <taz id="1" edges="-E576">
        </taz>
        <taz id="2" edges="E576">
        </taz>
        <taz id="3" edges="-E237">
        </taz>
        <taz id="4" edges="E237">
        </taz>
        <taz id="5" edges="-E620">
        </taz>
        <taz id="6" edges="E620">
        </taz>
        <taz id="7" edges="E482">
        </taz>
        <taz id="8" edges="-E482">
        </taz>
        <taz id="9" edges="-E481">
        </taz>
        <taz id="10" edges="E481">
        </taz>
        <taz id="11" edges="-E257">
        </taz>
        <taz id="12" edges="E257">
        </taz>
        <taz id="13" edges="E387">
        </taz>
        <taz id="14" edges="E382">
        </taz>
        <taz id="15" edges="E363">
        </taz>
        <taz id="16" edges="E364">
        </taz>
        <taz id="17" edges="E265">
        </taz>
        <taz id="18" edges="-E265">
        </taz>
        <taz id="19" edges="E381">
        </taz>
        <taz id="20" edges="-E381">
        </taz>
        <taz id="21" edges="-E410">
        </taz>
        <taz id="22" edges="E410">
        </taz>
        <taz id="23" edges="-E568">
        </taz>
        <taz id="24" edges="E568">
        </taz>
        <taz id="25" edges="-E563">
        </taz>
        <taz id="26" edges="E563">
        </taz>
    </tazs>
</additional>