<?xml version="1.0" encoding="UTF-8"?>

<!-- generated on 2023-10-23 11:52:45 by Eclipse SUMO netedit Version 1.14.1
<configuration xmlns:xsi="http://www.w3.org/2001/XMLSchema-instance" xsi:noNamespaceSchemaLocation="http://sumo.dlr.de/xsd/netconvertConfiguration.xsd">

    <input>
        <sumo-net-file value="J:\SUMO_Deajeon_V3\Deajeon_V6.net.xml"/>
    </input>

    <output>
        <output-file value="J:\SUMO_Deajeon_V3\Deajeon_V6.net.xml"/>
    </output>

    <processing>
        <geometry.min-radius.fix.railways value="false"/>
        <geometry.max-grade.fix value="false"/>
        <offset.disable-normalization value="true"/>
        <lefthand value="false"/>
    </processing>

    <junctions>
        <no-turnarounds value="true"/>
        <junctions.corner-detail value="5"/>
        <junctions.limit-turn-speed value="5.5"/>
        <rectangular-lane-cut value="false"/>
    </junctions>

    <pedestrian>
        <walkingareas value="false"/>
    </pedestrian>

</configuration>
-->

<net version="1.9" junctionCornerDetail="5" limitTurnSpeed="5.50" xmlns:xsi="http://www.w3.org/2001/XMLSchema-instance" xsi:noNamespaceSchemaLocation="http://sumo.dlr.de/xsd/net_file.xsd">

    <location netOffset="0.00,0.00" convBoundary="-1694.51,-946.02,2667.17,1389.66" origBoundary="-10000000000.00,-10000000000.00,10000000000.00,10000000000.00" projParameter="!"/>

    <edge id=":J0_0" function="internal">
        <lane id=":J0_0_0" index="0" disallow="pedestrian tram rail_urban rail rail_electric rail_fast ship" speed="13.89" length="8.12" shape="-1198.31,-414.18 -1200.66,-413.37 -1202.02,-412.08 -1203.38,-410.78 -1205.73,-409.95"/>
        <lane id=":J0_0_1" index="1" disallow="pedestrian tram rail_urban rail rail_electric rail_fast ship" speed="13.89" length="8.12" shape="-1198.31,-414.18 -1206.17,-413.12"/>
        <lane id=":J0_0_2" index="2" disallow="pedestrian tram rail_urban rail rail_electric rail_fast ship" speed="13.89" length="8.12" shape="-1198.73,-417.36 -1206.61,-416.29"/>
        <lane id=":J0_0_3" index="3" disallow="pedestrian tram rail_urban rail rail_electric rail_fast ship" speed="13.89" length="8.12" shape="-1199.15,-420.53 -1207.05,-419.46"/>
        <lane id=":J0_0_4" index="4" disallow="pedestrian tram rail_urban rail rail_electric rail_fast ship" speed="13.89" length="8.12" shape="-1199.57,-423.70 -1207.49,-422.63"/>
    </edge>
    <edge id=":J0_5" function="internal">
        <lane id=":J0_5_0" index="0" disallow="pedestrian tram rail_urban rail rail_electric rail_fast ship" speed="13.89" length="8.20" shape="-1209.25,-435.30 -1206.85,-436.14 -1205.46,-437.44 -1204.07,-438.74 -1201.68,-439.56"/>
        <lane id=":J0_5_1" index="1" disallow="pedestrian tram rail_urban rail rail_electric rail_fast ship" speed="13.89" length="8.20" shape="-1209.25,-435.30 -1201.26,-436.39"/>
        <lane id=":J0_5_2" index="2" disallow="pedestrian tram rail_urban rail rail_electric rail_fast ship" speed="13.89" length="8.20" shape="-1208.81,-432.14 -1200.83,-433.22"/>
        <lane id=":J0_5_3" index="3" disallow="pedestrian tram rail_urban rail rail_electric rail_fast ship" speed="13.89" length="8.20" shape="-1208.37,-428.97 -1200.41,-430.05"/>
        <lane id=":J0_5_4" index="4" disallow="pedestrian tram rail_urban rail rail_electric rail_fast ship" speed="13.89" length="8.20" shape="-1207.93,-425.80 -1199.99,-426.87"/>
    </edge>
    <edge id=":J1_0" function="internal">
        <lane id=":J1_0_0" index="0" disallow="pedestrian tram rail_urban rail rail_electric rail_fast ship" speed="13.89" length="7.89" shape="-857.65,-465.66 -859.88,-464.83 -861.13,-463.53 -862.37,-462.20 -864.59,-461.30"/>
        <lane id=":J1_0_1" index="1" disallow="pedestrian tram rail_urban rail rail_electric rail_fast ship" speed="13.89" length="7.89" shape="-857.65,-465.66 -865.15,-464.45"/>
        <lane id=":J1_0_2" index="2" disallow="pedestrian tram rail_urban rail rail_electric rail_fast ship" speed="13.89" length="7.89" shape="-858.11,-468.83 -865.71,-467.60"/>
        <lane id=":J1_0_3" index="3" disallow="pedestrian tram rail_urban rail rail_electric rail_fast ship" speed="13.89" length="7.89" shape="-858.56,-471.99 -866.28,-470.75"/>
        <lane id=":J1_0_4" index="4" disallow="pedestrian tram rail_urban rail rail_electric rail_fast ship" speed="13.89" length="7.89" shape="-859.02,-475.16 -866.84,-473.90"/>
    </edge>
    <edge id=":J1_5" function="internal">
        <lane id=":J1_5_0" index="0" disallow="pedestrian tram rail_urban rail rail_electric rail_fast ship" speed="13.89" length="8.18" shape="-869.09,-486.50 -860.86,-487.83"/>
        <lane id=":J1_5_1" index="1" disallow="pedestrian tram rail_urban rail rail_electric rail_fast ship" speed="13.89" length="8.18" shape="-868.53,-483.35 -860.40,-484.66"/>
        <lane id=":J1_5_2" index="2" disallow="pedestrian tram rail_urban rail rail_electric rail_fast ship" speed="13.89" length="8.18" shape="-867.96,-480.20 -859.94,-481.49"/>
        <lane id=":J1_5_3" index="3" disallow="pedestrian tram rail_urban rail rail_electric rail_fast ship" speed="13.89" length="8.18" shape="-867.40,-477.05 -859.48,-478.33"/>
    </edge>
    <edge id=":J10_0" function="internal">
        <lane id=":J10_0_0" index="0" disallow="pedestrian bicycle tram rail_urban rail rail_electric rail_fast ship" speed="8.92" length="11.29" shape="-589.60,4.80 -593.02,5.07 -595.80,5.90 -597.93,7.27 -599.41,9.20"/>
    </edge>
    <edge id=":J10_1" function="internal">
        <lane id=":J10_1_0" index="0" disallow="pedestrian bicycle tram rail_urban rail rail_electric rail_fast ship" speed="9.26" length="19.35" shape="-589.60,1.60 -594.85,0.85 -598.60,-1.40 -600.85,-5.15 -601.60,-10.40"/>
    </edge>
    <edge id=":J10_2" function="internal">
        <lane id=":J10_2_0" index="0" disallow="pedestrian bicycle tram rail_urban rail rail_electric rail_fast ship" speed="6.51" length="9.03" shape="-595.20,-10.40 -594.85,-7.95 -593.80,-6.20 -592.05,-5.15 -589.60,-4.80"/>
    </edge>
    <edge id=":J10_3" function="internal">
        <lane id=":J10_3_0" index="0" disallow="pedestrian bicycle tram rail_urban rail rail_electric rail_fast ship" speed="13.89" length="19.62" shape="-595.20,-10.40 -595.20,-4.36 -595.56,-0.17 -596.79,3.81 -599.41,9.20"/>
        <lane id=":J10_3_1" index="1" disallow="pedestrian bicycle tram rail_urban rail rail_electric rail_fast ship" speed="13.89" length="19.62" shape="-598.40,-10.40 -598.40,-4.82 -598.71,-0.95 -599.83,2.72 -602.24,7.71"/>
    </edge>
    <edge id=":J10_5" function="internal">
        <lane id=":J10_5_0" index="0" disallow="pedestrian bicycle tram rail_urban rail rail_electric rail_fast ship" speed="13.89" length="16.51" shape="-607.91,4.74 -605.91,0.57 -605.01,-2.50 -604.78,-5.74 -604.80,-10.40"/>
        <lane id=":J10_5_1" index="1" disallow="pedestrian bicycle tram rail_urban rail rail_electric rail_fast ship" speed="13.89" length="16.51" shape="-605.07,6.22 -602.87,1.65 -601.86,-1.72 -601.59,-5.28 -601.60,-10.40"/>
    </edge>
    <edge id=":J10_7" function="internal">
        <lane id=":J10_7_0" index="0" disallow="pedestrian bicycle tram rail_urban rail rail_electric rail_fast ship" speed="11.23" length="3.96" shape="-605.07,6.22 -602.73,3.03"/>
    </edge>
    <edge id=":J10_8" function="internal">
        <lane id=":J10_8_0" index="0" disallow="pedestrian bicycle tram rail_urban rail rail_electric rail_fast ship" speed="11.23" length="14.30" shape="-602.73,3.03 -602.57,2.80 -599.15,0.36 -594.83,-1.11 -589.60,-1.60"/>
    </edge>
    <edge id=":J100_0" function="internal">
        <lane id=":J100_0_0" index="0" disallow="pedestrian bicycle tram rail_urban rail rail_electric rail_fast ship" speed="13.89" length="32.33" shape="-527.60,380.22 -535.01,374.04 -539.52,369.17 -543.82,364.04 -550.58,357.09"/>
        <lane id=":J100_0_1" index="1" disallow="pedestrian bicycle tram rail_urban rail rail_electric rail_fast ship" speed="13.89" length="32.33" shape="-525.67,377.67 -533.00,371.55 -537.46,366.72 -541.70,361.64 -548.38,354.76"/>
        <lane id=":J100_0_2" index="2" disallow="pedestrian bicycle tram rail_urban rail rail_electric rail_fast ship" speed="13.89" length="32.33" shape="-523.74,375.12 -530.99,369.06 -535.39,364.27 -539.58,359.24 -546.19,352.43"/>
    </edge>
    <edge id=":J100_3" function="internal">
        <lane id=":J100_3_0" index="0" disallow="pedestrian bicycle tram rail_urban rail rail_electric rail_fast ship" speed="10.75" length="30.38" shape="-521.82,372.56 -528.41,366.47 -531.36,360.52 -530.31,354.40 -524.87,347.81"/>
    </edge>
    <edge id=":J100_4" function="internal">
        <lane id=":J100_4_0" index="0" disallow="pedestrian bicycle tram rail_urban rail rail_electric rail_fast ship" speed="5.58" length="14.02" shape="-521.82,372.56 -523.24,368.48 -522.75,365.84 -520.35,364.65 -516.03,364.90"/>
    </edge>
    <edge id=":J100_5" function="internal">
        <lane id=":J100_5_0" index="0" disallow="pedestrian bicycle tram rail_urban rail rail_electric rail_fast ship" speed="13.89" length="32.32" shape="-516.34,357.36 -524.41,363.75 -531.04,368.18 -536.39,372.27 -540.63,377.61"/>
        <lane id=":J100_5_1" index="1" disallow="pedestrian bicycle tram rail_urban rail rail_electric rail_fast ship" speed="13.89" length="32.32" shape="-518.47,354.97 -526.80,361.62 -533.63,366.32 -539.12,370.60 -543.40,376.02"/>
    </edge>
    <edge id=":J100_7" function="internal">
        <lane id=":J100_7_0" index="0" disallow="pedestrian bicycle tram rail_urban rail rail_electric rail_fast ship" speed="12.50" length="33.77" shape="-518.47,354.97 -525.44,358.59 -534.77,360.37 -543.97,359.97 -550.58,357.09"/>
        <lane id=":J100_7_1" index="1" disallow="pedestrian bicycle tram rail_urban rail rail_electric rail_fast ship" speed="11.72" length="29.60" shape="-520.60,352.58 -526.91,356.20 -534.77,357.98 -542.49,357.60 -548.38,354.76"/>
        <lane id=":J100_7_2" index="2" disallow="pedestrian bicycle tram rail_urban rail rail_electric rail_fast ship" speed="10.83" length="25.10" shape="-522.74,350.20 -528.16,353.43 -534.75,355.08 -541.20,354.85 -546.19,352.43"/>
    </edge>
    <edge id=":J100_10" function="internal">
        <lane id=":J100_10_0" index="0" disallow="pedestrian bicycle tram rail_urban rail rail_electric rail_fast ship" speed="13.89" length="30.93" shape="-537.41,343.12 -531.07,349.67 -527.04,354.55 -522.86,359.16 -516.03,364.90"/>
        <lane id=":J100_10_1" index="1" disallow="pedestrian bicycle tram rail_urban rail rail_electric rail_fast ship" speed="13.89" length="30.93" shape="-539.60,345.45 -533.17,352.08 -529.06,357.03 -524.81,361.69 -517.96,367.46"/>
        <lane id=":J100_10_2" index="2" disallow="pedestrian bicycle tram rail_urban rail rail_electric rail_fast ship" speed="13.89" length="30.93" shape="-541.80,347.78 -535.27,354.50 -531.07,359.52 -526.76,364.23 -519.89,370.01"/>
    </edge>
    <edge id=":J100_13" function="internal">
        <lane id=":J100_13_0" index="0" disallow="pedestrian bicycle tram rail_urban rail rail_electric rail_fast ship" speed="12.19" length="28.15" shape="-543.99,350.10 -540.19,355.27 -538.83,361.32 -539.90,368.23 -543.40,376.02"/>
    </edge>
    <edge id=":J100_14" function="internal">
        <lane id=":J100_14_0" index="0" disallow="pedestrian bicycle tram rail_urban rail rail_electric rail_fast ship" speed="5.58" length="14.02" shape="-543.99,350.10 -543.02,354.32 -543.79,356.89 -546.31,357.81 -550.58,357.09"/>
    </edge>
    <edge id=":J100_15" function="internal">
        <lane id=":J100_15_0" index="0" disallow="pedestrian bicycle tram rail_urban rail rail_electric rail_fast ship" speed="13.89" length="35.33" shape="-551.73,371.24 -546.62,362.75 -541.82,356.01 -536.33,349.83 -529.13,343.04"/>
        <lane id=":J100_15_1" index="1" disallow="pedestrian bicycle tram rail_urban rail rail_electric rail_fast ship" speed="13.89" length="35.33" shape="-548.95,372.83 -543.94,364.47 -539.37,358.00 -534.10,352.09 -527.00,345.42"/>
        <lane id=":J100_15_2" index="2" disallow="pedestrian bicycle tram rail_urban rail rail_electric rail_fast ship" speed="13.89" length="35.33" shape="-546.18,374.43 -541.27,366.18 -536.92,359.99 -531.87,354.35 -524.87,347.81"/>
    </edge>
    <edge id=":J100_18" function="internal">
        <lane id=":J100_18_0" index="0" disallow="pedestrian bicycle tram rail_urban rail rail_electric rail_fast ship" speed="10.77" length="29.07" shape="-546.18,374.43 -541.20,369.73 -534.03,367.32 -526.37,367.36 -519.89,370.01"/>
    </edge>
    <edge id=":J101_0" function="internal">
        <lane id=":J101_0_0" index="0" disallow="pedestrian bicycle tram rail_urban rail rail_electric rail_fast ship" speed="13.89" length="64.03" shape="-561.88,357.35 -566.62,349.23 -576.23,334.93 -588.53,319.34 -601.31,307.32"/>
    </edge>
    <edge id=":J101_1" function="internal">
        <lane id=":J101_1_0" index="0" disallow="pedestrian bicycle tram rail_urban rail rail_electric rail_fast ship" speed="13.89" length="64.49" shape="-558.26,354.24 -568.82,342.73 -579.10,329.94 -589.72,317.56 -601.31,307.32"/>
        <lane id=":J101_1_1" index="1" disallow="pedestrian bicycle tram rail_urban rail rail_electric rail_fast ship" speed="13.89" length="64.49" shape="-556.07,351.91 -566.68,340.36 -577.08,327.46 -587.82,314.99 -599.47,304.70"/>
        <lane id=":J101_1_2" index="2" disallow="pedestrian bicycle tram rail_urban rail rail_electric rail_fast ship" speed="13.89" length="64.49" shape="-553.87,349.58 -564.54,337.99 -575.07,324.99 -585.93,312.41 -597.63,302.08"/>
        <lane id=":J101_1_3" index="3" disallow="pedestrian bicycle tram rail_urban rail rail_electric rail_fast ship" speed="13.89" length="64.49" shape="-551.68,347.26 -562.40,335.61 -573.05,322.52 -584.04,309.84 -595.80,299.46"/>
    </edge>
    <edge id=":J101_5" function="internal">
        <lane id=":J101_5_0" index="0" disallow="pedestrian bicycle tram rail_urban rail rail_electric rail_fast ship" speed="13.89" length="45.05" shape="-586.98,286.87 -575.13,297.26 -566.41,307.34 -560.23,315.32 -556.04,319.44"/>
    </edge>
    <edge id=":J101_6" function="internal">
        <lane id=":J101_6_0" index="0" disallow="pedestrian bicycle tram rail_urban rail rail_electric rail_fast ship" speed="13.89" length="66.19" shape="-588.81,289.50 -575.18,301.37 -563.75,314.11 -553.37,326.66 -542.89,337.94"/>
        <lane id=":J101_6_1" index="1" disallow="pedestrian bicycle tram rail_urban rail rail_electric rail_fast ship" speed="13.89" length="66.19" shape="-590.65,292.12 -577.07,303.94 -565.76,316.59 -555.51,329.04 -545.09,340.27"/>
        <lane id=":J101_6_2" index="2" disallow="pedestrian bicycle tram rail_urban rail rail_electric rail_fast ship" speed="13.89" length="66.19" shape="-592.49,294.74 -578.96,306.52 -567.78,319.06 -557.65,331.41 -547.28,342.60"/>
        <lane id=":J101_6_3" index="3" disallow="pedestrian bicycle tram rail_urban rail rail_electric rail_fast ship" speed="13.89" length="66.19" shape="-594.33,297.36 -580.86,309.09 -569.80,321.54 -559.79,333.78 -549.48,344.93"/>
    </edge>
    <edge id=":J102_0" function="internal">
        <lane id=":J102_0_0" index="0" disallow="pedestrian tram rail_urban rail rail_electric rail_fast ship" speed="13.89" length="8.43" shape="694.81,-525.17 694.60,-533.61"/>
        <lane id=":J102_0_1" index="1" disallow="pedestrian tram rail_urban rail rail_electric rail_fast ship" speed="13.89" length="8.43" shape="698.01,-525.22 697.80,-533.63"/>
    </edge>
    <edge id=":J102_2" function="internal">
        <lane id=":J102_2_0" index="0" disallow="pedestrian tram rail_urban rail rail_electric rail_fast ship" speed="13.89" length="8.35" shape="710.60,-533.73 710.81,-525.42"/>
        <lane id=":J102_2_1" index="1" disallow="pedestrian tram rail_urban rail rail_electric rail_fast ship" speed="13.89" length="8.35" shape="707.40,-533.71 707.61,-525.37"/>
        <lane id=":J102_2_2" index="2" speed="13.89" length="8.35" shape="704.20,-533.68 704.41,-525.32"/>
        <lane id=":J102_2_3" index="3" speed="13.89" length="8.35" shape="701.00,-533.66 701.21,-525.27"/>
    </edge>
    <edge id=":J102_6" function="internal">
        <lane id=":J102_6_0" index="0" disallow="pedestrian tram rail_urban rail rail_electric rail_fast ship" speed="13.89" length="8.61" shape="689.67,-525.27 690.67,-527.61 691.19,-529.29 691.39,-531.04 691.40,-533.59"/>
    </edge>
    <edge id=":J103_0" function="internal">
        <lane id=":J103_0_0" index="0" disallow="pedestrian tram rail_urban rail rail_electric rail_fast ship" speed="13.89" length="8.59" shape="704.01,-437.27 704.51,-434.77 705.60,-433.21 706.69,-431.64 707.16,-429.15"/>
        <lane id=":J103_0_1" index="1" speed="13.89" length="8.59" shape="700.81,-437.27 701.31,-434.78 702.40,-433.23 703.49,-431.67 703.96,-429.19"/>
        <lane id=":J103_0_2" index="2" speed="13.89" length="8.59" shape="700.81,-437.27 700.76,-429.23"/>
    </edge>
    <edge id=":J103_3" function="internal">
        <lane id=":J103_3_0" index="0" disallow="pedestrian tram rail_urban rail rail_electric rail_fast ship" speed="13.89" length="8.55" shape="691.16,-429.36 690.69,-431.79 689.60,-433.31 688.51,-434.83 688.01,-437.27"/>
        <lane id=":J103_3_1" index="1" speed="13.89" length="8.55" shape="694.36,-429.32 693.89,-431.76 692.80,-433.29 691.71,-434.82 691.21,-437.27"/>
        <lane id=":J103_3_2" index="2" speed="13.89" length="8.55" shape="697.56,-429.27 697.09,-431.73 696.00,-433.27 694.91,-434.81 694.41,-437.27"/>
        <lane id=":J103_3_3" index="3" speed="13.89" length="8.55" shape="697.56,-429.27 697.61,-437.27"/>
    </edge>
    <edge id=":J104_0" function="internal">
        <lane id=":J104_0_0" index="0" disallow="pedestrian tram rail_urban rail rail_electric rail_fast ship" speed="10.12" length="11.12" shape="688.01,-462.70 687.88,-466.76 687.50,-469.90 686.85,-472.12 685.95,-473.42"/>
    </edge>
    <edge id=":J104_1" function="internal">
        <lane id=":J104_1_0" index="0" disallow="pedestrian tram rail_urban rail rail_electric rail_fast ship" speed="13.89" length="11.46" shape="691.21,-462.70 691.42,-474.23"/>
        <lane id=":J104_1_1" index="1" speed="13.89" length="11.46" shape="694.41,-462.70 694.62,-474.16"/>
        <lane id=":J104_1_2" index="2" speed="13.89" length="11.46" shape="697.61,-462.70 697.82,-474.08"/>
    </edge>
    <edge id=":J104_4" function="internal">
        <lane id=":J104_4_0" index="0" disallow="pedestrian tram rail_urban rail rail_electric rail_fast ship" speed="13.89" length="11.28" shape="704.22,-473.94 704.01,-462.70"/>
        <lane id=":J104_4_1" index="1" speed="13.89" length="11.28" shape="701.02,-474.01 700.81,-462.70"/>
    </edge>
    <edge id=":J105_0" function="internal">
        <lane id=":J105_0_0" index="0" disallow="pedestrian tram rail_urban rail rail_electric rail_fast ship" speed="13.89" length="10.49" shape="389.11,-455.67 388.09,-458.34 385.86,-459.61 383.61,-460.89 382.58,-463.56"/>
        <lane id=":J105_0_1" index="1" speed="13.89" length="10.49" shape="392.31,-455.66 391.29,-458.34 389.06,-459.62 386.81,-460.90 385.78,-463.58"/>
        <lane id=":J105_0_2" index="2" speed="13.89" length="10.49" shape="395.51,-455.66 394.49,-458.34 392.26,-459.63 390.01,-460.91 388.98,-463.60"/>
        <lane id=":J105_0_3" index="3" speed="13.89" length="10.49" shape="398.71,-455.65 397.69,-458.34 395.46,-459.63 393.21,-460.92 392.18,-463.61"/>
        <lane id=":J105_0_4" index="4" speed="13.89" length="10.49" shape="398.71,-455.65 398.19,-458.11 397.05,-459.64 395.91,-461.17 395.38,-463.63"/>
    </edge>
    <edge id=":J105_5" function="internal">
        <lane id=":J105_5_0" index="0" disallow="pedestrian tram rail_urban rail rail_electric rail_fast ship" speed="10.82" length="11.43" shape="417.77,-466.36 416.43,-464.62 415.48,-462.25 414.90,-459.26 414.71,-455.63"/>
    </edge>
    <edge id=":J105_6" function="internal">
        <lane id=":J105_6_0" index="0" disallow="pedestrian tram rail_urban rail rail_electric rail_fast ship" speed="13.89" length="8.67" shape="408.18,-463.69 408.71,-461.21 409.85,-459.67 410.99,-458.12 411.51,-455.64"/>
        <lane id=":J105_6_1" index="1" speed="13.89" length="8.67" shape="404.98,-463.68 405.51,-461.20 406.65,-459.66 407.79,-458.12 408.31,-455.64"/>
        <lane id=":J105_6_2" index="2" speed="13.89" length="8.67" shape="401.78,-463.66 402.31,-461.19 403.45,-459.65 404.59,-458.12 405.11,-455.65"/>
        <lane id=":J105_6_3" index="3" speed="13.89" length="8.67" shape="401.78,-463.66 401.91,-455.65"/>
    </edge>
    <edge id=":J11_0" function="internal">
        <lane id=":J11_0_0" index="0" disallow="pedestrian bicycle tram rail_urban rail rail_electric rail_fast ship" speed="13.89" length="14.32" shape="-492.90,4.86 -507.20,4.80"/>
        <lane id=":J11_0_1" index="1" disallow="pedestrian bicycle tram rail_urban rail rail_electric rail_fast ship" speed="13.89" length="14.32" shape="-492.87,1.66 -507.20,1.60"/>
    </edge>
    <edge id=":J11_2" function="internal">
        <lane id=":J11_2_0" index="0" disallow="pedestrian bicycle tram rail_urban rail rail_electric rail_fast ship" speed="8.69" length="3.65" shape="-492.87,1.66 -496.45,0.93"/>
    </edge>
    <edge id=":J11_8" function="internal">
        <lane id=":J11_8_0" index="0" disallow="pedestrian bicycle tram rail_urban rail rail_electric rail_fast ship" speed="8.69" length="13.17" shape="-496.45,0.93 -496.69,0.88 -499.42,-1.39 -501.05,-5.15 -501.60,-10.40"/>
    </edge>
    <edge id=":J11_3" function="internal">
        <lane id=":J11_3_0" index="0" disallow="pedestrian bicycle tram rail_urban rail rail_electric rail_fast ship" speed="6.53" length="9.05" shape="-498.40,-10.40 -498.05,-7.94 -497.00,-6.18 -495.26,-5.11 -492.81,-4.74"/>
    </edge>
    <edge id=":J11_4" function="internal">
        <lane id=":J11_4_0" index="0" disallow="pedestrian bicycle tram rail_urban rail rail_electric rail_fast ship" speed="8.67" length="16.85" shape="-498.40,-10.40 -498.95,-5.15 -500.60,-1.40 -503.35,0.85 -507.20,1.60"/>
    </edge>
    <edge id=":J11_5" function="internal">
        <lane id=":J11_5_0" index="0" disallow="pedestrian bicycle tram rail_urban rail rail_electric rail_fast ship" speed="6.51" length="9.03" shape="-507.20,-4.80 -504.75,-5.15 -503.00,-6.20 -501.95,-7.95 -501.60,-10.40"/>
    </edge>
    <edge id=":J11_6" function="internal">
        <lane id=":J11_6_0" index="0" disallow="pedestrian bicycle tram rail_urban rail rail_electric rail_fast ship" speed="13.89" length="14.37" shape="-507.20,-4.80 -492.81,-4.74"/>
        <lane id=":J11_6_1" index="1" disallow="pedestrian bicycle tram rail_urban rail rail_electric rail_fast ship" speed="13.89" length="14.37" shape="-507.20,-1.60 -492.84,-1.54"/>
    </edge>
    <edge id=":J116_0" function="internal">
        <lane id=":J116_0_0" index="0" disallow="pedestrian bicycle tram rail_urban rail rail_electric rail_fast ship" speed="13.89" length="40.74" shape="-1064.92,-55.99 -1071.73,-61.81 -1081.34,-67.31 -1091.44,-72.23 -1099.73,-76.27"/>
        <lane id=":J116_0_1" index="1" disallow="pedestrian bicycle tram rail_urban rail rail_electric rail_fast ship" speed="13.89" length="40.74" shape="-1062.93,-58.64 -1069.82,-64.48 -1079.59,-70.05 -1089.86,-75.02 -1098.23,-79.10"/>
    </edge>
    <edge id=":J116_2" function="internal">
        <lane id=":J116_2_0" index="0" disallow="pedestrian bicycle tram rail_urban rail rail_electric rail_fast ship" speed="13.89" length="52.61" shape="-1093.24,-105.42 -1089.28,-100.27 -1080.10,-92.59 -1067.35,-83.02 -1052.70,-72.22"/>
    </edge>
    <edge id=":J116_3" function="internal">
        <lane id=":J116_3_0" index="0" disallow="pedestrian bicycle tram rail_urban rail rail_electric rail_fast ship" speed="13.89" length="52.80" shape="-1097.53,-99.83 -1088.41,-93.66 -1078.25,-88.10 -1066.52,-81.51 -1052.70,-72.22"/>
        <lane id=":J116_3_1" index="1" disallow="pedestrian bicycle tram rail_urban rail rail_electric rail_fast ship" speed="13.89" length="52.80" shape="-1099.54,-97.34 -1090.40,-91.15 -1080.22,-85.58 -1068.46,-78.96 -1054.63,-69.66"/>
        <lane id=":J116_3_2" index="2" disallow="pedestrian bicycle tram rail_urban rail rail_electric rail_fast ship" speed="13.89" length="52.80" shape="-1101.54,-94.84 -1092.39,-88.65 -1082.18,-83.05 -1070.40,-76.42 -1056.55,-67.10"/>
    </edge>
    <edge id=":J116_6" function="internal">
        <lane id=":J116_6_0" index="0" disallow="pedestrian bicycle tram rail_urban rail rail_electric rail_fast ship" speed="13.89" length="41.78" shape="-1095.22,-84.75 -1088.12,-81.37 -1079.85,-77.58 -1070.07,-72.33 -1058.48,-64.55"/>
        <lane id=":J116_6_1" index="1" disallow="pedestrian bicycle tram rail_urban rail rail_electric rail_fast ship" speed="13.89" length="41.78" shape="-1096.72,-81.92 -1089.66,-78.57 -1081.48,-74.84 -1071.85,-69.66 -1060.40,-61.99"/>
    </edge>
    <edge id=":J12_0" function="internal">
        <lane id=":J12_0_0" index="0" disallow="pedestrian bicycle tram rail_urban rail rail_electric rail_fast ship" speed="6.59" length="9.12" shape="-363.46,11.67 -363.85,9.18 -364.92,7.40 -366.67,6.32 -369.11,5.95"/>
    </edge>
    <edge id=":J12_1" function="internal">
        <lane id=":J12_1_0" index="0" disallow="pedestrian bicycle tram rail_urban rail rail_electric rail_fast ship" speed="8.65" length="16.91" shape="-363.46,11.67 -362.99,6.39 -361.39,2.62 -358.65,0.34 -354.77,-0.44"/>
    </edge>
    <edge id=":J12_2" function="internal">
        <lane id=":J12_2_0" index="0" disallow="pedestrian bicycle tram rail_urban rail rail_electric rail_fast ship" speed="6.48" length="9.03" shape="-354.73,5.96 -357.19,6.33 -358.92,7.39 -359.95,9.16 -360.26,11.62"/>
    </edge>
    <edge id=":J12_3" function="internal">
        <lane id=":J12_3_0" index="0" disallow="pedestrian bicycle tram rail_urban rail rail_electric rail_fast ship" speed="13.89" length="14.35" shape="-354.73,5.96 -369.11,5.95"/>
        <lane id=":J12_3_1" index="1" disallow="pedestrian bicycle tram rail_urban rail rail_electric rail_fast ship" speed="13.89" length="14.35" shape="-354.75,2.76 -369.08,2.75"/>
    </edge>
    <edge id=":J12_5" function="internal">
        <lane id=":J12_5_0" index="0" disallow="pedestrian bicycle tram rail_urban rail rail_electric rail_fast ship" speed="13.89" length="14.26" shape="-369.03,-3.65 -354.79,-3.64"/>
        <lane id=":J12_5_1" index="1" disallow="pedestrian bicycle tram rail_urban rail rail_electric rail_fast ship" speed="13.89" length="14.26" shape="-369.05,-0.45 -354.77,-0.44"/>
    </edge>
    <edge id=":J12_7" function="internal">
        <lane id=":J12_7_0" index="0" disallow="pedestrian bicycle tram rail_urban rail rail_electric rail_fast ship" speed="8.74" length="3.56" shape="-369.05,-0.45 -365.57,0.27"/>
    </edge>
    <edge id=":J12_8" function="internal">
        <lane id=":J12_8_0" index="0" disallow="pedestrian bicycle tram rail_urban rail rail_electric rail_fast ship" speed="8.74" length="13.25" shape="-365.57,0.27 -365.28,0.33 -362.56,2.60 -360.88,6.36 -360.26,11.62"/>
    </edge>
    <edge id=":J122_0" function="internal">
        <lane id=":J122_0_0" index="0" disallow="pedestrian bicycle tram rail_urban rail rail_electric rail_fast ship" speed="13.89" length="7.93" shape="-951.87,6.85 -945.58,11.31"/>
        <lane id=":J122_0_1" index="1" disallow="pedestrian bicycle tram rail_urban rail rail_electric rail_fast ship" speed="13.89" length="7.93" shape="-953.78,9.42 -947.37,13.96"/>
        <lane id=":J122_0_2" index="2" disallow="pedestrian bicycle tram rail_urban rail rail_electric rail_fast ship" speed="13.89" length="7.93" shape="-955.69,11.98 -949.16,16.61"/>
        <lane id=":J122_0_3" index="3" disallow="pedestrian bicycle tram rail_urban rail rail_electric rail_fast ship" speed="13.89" length="7.93" shape="-957.60,14.55 -950.95,19.27"/>
    </edge>
    <edge id=":J124_0" function="internal">
        <lane id=":J124_0_0" index="0" disallow="pedestrian bicycle tram rail_urban rail rail_electric rail_fast ship" speed="13.89" length="8.13" shape="-766.78,147.92 -764.61,149.26 -762.71,149.53 -760.83,149.83 -758.71,151.22"/>
        <lane id=":J124_0_1" index="1" disallow="pedestrian bicycle tram rail_urban rail rail_electric rail_fast ship" speed="13.89" length="8.13" shape="-766.78,147.92 -760.95,153.50"/>
        <lane id=":J124_0_2" index="2" disallow="pedestrian bicycle tram rail_urban rail rail_electric rail_fast ship" speed="13.89" length="8.13" shape="-768.96,150.26 -763.20,155.78"/>
        <lane id=":J124_0_3" index="3" disallow="pedestrian bicycle tram rail_urban rail rail_electric rail_fast ship" speed="13.89" length="8.13" shape="-771.14,152.61 -765.44,158.06"/>
        <lane id=":J124_0_4" index="4" disallow="pedestrian bicycle tram rail_urban rail rail_electric rail_fast ship" speed="13.89" length="8.13" shape="-773.32,154.95 -767.69,160.34"/>
    </edge>
    <edge id=":J129_0" function="internal">
        <lane id=":J129_0_0" index="0" disallow="pedestrian bicycle tram rail_urban rail rail_electric rail_fast ship" speed="13.89" length="10.00" shape="-1276.25,-316.32 -1275.09,-313.59 -1274.24,-311.73 -1273.22,-309.97 -1271.58,-307.51"/>
    </edge>
    <edge id=":J129_1" function="internal">
        <lane id=":J129_1_0" index="0" disallow="pedestrian bicycle tram rail_urban rail rail_electric rail_fast ship" speed="13.89" length="10.49" shape="-1279.91,-314.09 -1277.62,-311.94 -1275.61,-310.90 -1273.68,-309.80 -1271.58,-307.51"/>
        <lane id=":J129_1_1" index="1" disallow="pedestrian bicycle tram rail_urban rail rail_electric rail_fast ship" speed="13.89" length="10.49" shape="-1282.39,-312.06 -1280.14,-309.98 -1278.17,-308.97 -1276.27,-307.92 -1274.21,-305.69"/>