<net xmlns:xsi="http://www.w3.org/2001/XMLSchema-instance" version="1.9" junctionCornerDetail="5" limitTurnSpeed="5.50" xsi:noNamespaceSchemaLocation="http://sumo.dlr.de/xsd/net_file.xsd"><location netOffset="0.00,0.00" convBoundary="-1694.51,-946.02,2667.17,1389.66" origBoundary="-10000000000.00,-10000000000.00,10000000000.00,10000000000.00" projParameter="!" />
    <edge id=":J0_0" function="internal">
        <lane id=":J0_0_0" index="0" disallow="pedestrian tram rail_urban rail rail_electric rail_fast ship" speed="13.89" length="8.12" shape="504.77,533.06 502.41999999999985,533.87 501.05999999999995,535.1600000000001 499.6999999999998,536.46 497.3499999999999,537.29" />
        <lane id=":J0_0_1" index="1" disallow="pedestrian tram rail_urban rail rail_electric rail_fast ship" speed="13.89" length="8.12" shape="504.77,533.06 496.90999999999985,534.12" />
        <lane id=":J0_0_2" index="2" disallow="pedestrian tram rail_urban rail rail_electric rail_fast ship" speed="13.89" length="8.12" shape="504.3499999999999,529.88 496.47,530.95" />
        <lane id=":J0_0_3" index="3" disallow="pedestrian tram rail_urban rail rail_electric rail_fast ship" speed="13.89" length="8.12" shape="503.92999999999984,526.71 496.03,527.78" />
        <lane id=":J0_0_4" index="4" disallow="pedestrian tram rail_urban rail rail_electric rail_fast ship" speed="13.89" length="8.12" shape="503.51,523.54 495.5899999999999,524.61" />
    </edge>
    <edge id=":J0_5" function="internal">
        <lane id=":J0_5_0" index="0" disallow="pedestrian tram rail_urban rail rail_electric rail_fast ship" speed="13.89" length="8.20" shape="493.8299999999999,511.94 496.23,511.1 497.6199999999999,509.8 499.01,508.5 501.39999999999986,507.68" />
        <lane id=":J0_5_1" index="1" disallow="pedestrian tram rail_urban rail rail_electric rail_fast ship" speed="13.89" length="8.20" shape="493.8299999999999,511.94 501.81999999999994,510.85" />
        <lane id=":J0_5_2" index="2" disallow="pedestrian tram rail_urban rail rail_electric rail_fast ship" speed="13.89" length="8.20" shape="494.27,515.1 502.25,514.02" />
        <lane id=":J0_5_3" index="3" disallow="pedestrian tram rail_urban rail rail_electric rail_fast ship" speed="13.89" length="8.20" shape="494.71000000000004,518.27 502.66999999999985,517.19" />
        <lane id=":J0_5_4" index="4" disallow="pedestrian tram rail_urban rail rail_electric rail_fast ship" speed="13.89" length="8.20" shape="495.14999999999986,521.44 503.0899999999999,520.37" />
    </edge>
    <edge id=":J1_0" function="internal">
        <lane id=":J1_0_0" index="0" disallow="pedestrian tram rail_urban rail rail_electric rail_fast ship" speed="13.89" length="7.89" shape="845.43,481.58 843.1999999999999,482.41 841.9499999999999,483.71000000000004 840.7099999999999,485.04 838.4899999999999,485.94" />
        <lane id=":J1_0_1" index="1" disallow="pedestrian tram rail_urban rail rail_electric rail_fast ship" speed="13.89" length="7.89" shape="845.43,481.58 837.93,482.79" />
        <lane id=":J1_0_2" index="2" disallow="pedestrian tram rail_urban rail rail_electric rail_fast ship" speed="13.89" length="7.89" shape="844.9699999999999,478.41 837.3699999999999,479.64" />
        <lane id=":J1_0_3" index="3" disallow="pedestrian tram rail_urban rail rail_electric rail_fast ship" speed="13.89" length="7.89" shape="844.52,475.25 836.8,476.49" />
        <lane id=":J1_0_4" index="4" disallow="pedestrian tram rail_urban rail rail_electric rail_fast ship" speed="13.89" length="7.89" shape="844.06,472.08 836.2399999999999,473.34000000000003" />
    </edge>
    <edge id=":J1_5" function="internal">
        <lane id=":J1_5_0" index="0" disallow="pedestrian tram rail_urban rail rail_electric rail_fast ship" speed="13.89" length="8.18" shape="833.9899999999999,460.74 842.2199999999999,459.41" />
        <lane id=":J1_5_1" index="1" disallow="pedestrian tram rail_urban rail rail_electric rail_fast ship" speed="13.89" length="8.18" shape="834.55,463.89 842.68,462.58" />
        <lane id=":J1_5_2" index="2" disallow="pedestrian tram rail_urban rail rail_electric rail_fast ship" speed="13.89" length="8.18" shape="835.1199999999999,467.04 843.1399999999999,465.75" />
        <lane id=":J1_5_3" index="3" disallow="pedestrian tram rail_urban rail rail_electric rail_fast ship" speed="13.89" length="8.18" shape="835.68,470.19 843.5999999999999,468.91" />
    </edge>
    <edge id=":J10_0" function="internal">
        <lane id=":J10_0_0" index="0" disallow="pedestrian bicycle tram rail_urban rail rail_electric rail_fast ship" speed="8.92" length="11.29" shape="1113.48,952.04 1110.06,952.3100000000001 1107.28,953.14 1105.15,954.51 1103.67,956.44" />
    </edge>
    <edge id=":J10_1" function="internal">
        <lane id=":J10_1_0" index="0" disallow="pedestrian bicycle tram rail_urban rail rail_electric rail_fast ship" speed="9.26" length="19.35" shape="1113.48,948.84 1108.23,948.09 1104.48,945.84 1102.23,942.09 1101.48,936.84" />
    </edge>
    <edge id=":J10_2" function="internal">
        <lane id=":J10_2_0" index="0" disallow="pedestrian bicycle tram rail_urban rail rail_electric rail_fast ship" speed="6.51" length="9.03" shape="1107.8799999999999,936.84 1108.23,939.29 1109.28,941.04 1111.03,942.09 1113.48,942.44" />
    </edge>
    <edge id=":J10_3" function="internal">
        <lane id=":J10_3_0" index="0" disallow="pedestrian bicycle tram rail_urban rail rail_electric rail_fast ship" speed="13.89" length="19.62" shape="1107.8799999999999,936.84 1107.8799999999999,942.88 1107.52,947.07 1106.29,951.05 1103.67,956.44" />
        <lane id=":J10_3_1" index="1" disallow="pedestrian bicycle tram rail_urban rail rail_electric rail_fast ship" speed="13.89" length="19.62" shape="1104.6799999999998,936.84 1104.6799999999998,942.42 1104.37,946.29 1103.25,949.96 1100.84,954.95" />
    </edge>
    <edge id=":J10_5" function="internal">
        <lane id=":J10_5_0" index="0" disallow="pedestrian bicycle tram rail_urban rail rail_electric rail_fast ship" speed="13.89" length="16.51" shape="1095.17,951.98 1097.17,947.8100000000001 1098.07,944.74 1098.3,941.5 1098.28,936.84" />
        <lane id=":J10_5_1" index="1" disallow="pedestrian bicycle tram rail_urban rail rail_electric rail_fast ship" speed="13.89" length="16.51" shape="1098.0099999999998,953.46 1100.21,948.89 1101.2199999999998,945.52 1101.4899999999998,941.96 1101.48,936.84" />
    </edge>
    <edge id=":J10_7" function="internal">
        <lane id=":J10_7_0" index="0" disallow="pedestrian bicycle tram rail_urban rail rail_electric rail_fast ship" speed="11.23" length="3.96" shape="1098.0099999999998,953.46 1100.35,950.27" />
    </edge>
    <edge id=":J10_8" function="internal">
        <lane id=":J10_8_0" index="0" disallow="pedestrian bicycle tram rail_urban rail rail_electric rail_fast ship" speed="11.23" length="14.30" shape="1100.35,950.27 1100.5099999999998,950.04 1103.9299999999998,947.6 1108.25,946.13 1113.48,945.64" />
    </edge>
    <edge id=":J100_0" function="internal">
        <lane id=":J100_0_0" index="0" disallow="pedestrian bicycle tram rail_urban rail rail_electric rail_fast ship" speed="13.89" length="32.33" shape="1175.48,1327.46 1168.07,1321.28 1163.56,1316.41 1159.2599999999998,1311.28 1152.5,1304.33" />
        <lane id=":J100_0_1" index="1" disallow="pedestrian bicycle tram rail_urban rail rail_electric rail_fast ship" speed="13.89" length="32.33" shape="1177.4099999999999,1324.91 1170.08,1318.79 1165.62,1313.96 1161.3799999999999,1308.88 1154.6999999999998,1302.0" />
        <lane id=":J100_0_2" index="2" disallow="pedestrian bicycle tram rail_urban rail rail_electric rail_fast ship" speed="13.89" length="32.33" shape="1179.34,1322.3600000000001 1172.09,1316.3 1167.69,1311.51 1163.5,1306.48 1156.8899999999999,1299.67" />
    </edge>
    <edge id=":J100_3" function="internal">
        <lane id=":J100_3_0" index="0" disallow="pedestrian bicycle tram rail_urban rail rail_electric rail_fast ship" speed="10.75" length="9.60" shape="1181.2599999999998,1319.8 1174.67,1313.71 1174.3899999999999,1313.15" />
    </edge>
    <edge id=":J100_4" function="internal">
        <lane id=":J100_4_0" index="0" disallow="pedestrian bicycle tram rail_urban rail rail_electric rail_fast ship" speed="5.58" length="1.61" shape="1181.2599999999998,1319.8 1180.73,1318.28" />
    </edge>
    <edge id=":J100_19" function="internal">
        <lane id=":J100_19_0" index="0" disallow="pedestrian bicycle tram rail_urban rail rail_electric rail_fast ship" speed="10.75" length="20.78" shape="1174.3899999999999,1313.15 1171.7199999999998,1307.76 1172.77,1301.6399999999999 1178.21,1295.05" />
    </edge>
    <edge id=":J100_20" function="internal">
        <lane id=":J100_20_0" index="0" disallow="pedestrian bicycle tram rail_urban rail rail_electric rail_fast ship" speed="5.58" length="12.41" shape="1180.73,1318.28 1179.84,1315.72 1180.33,1313.08 1182.73,1311.8899999999999 1187.05,1312.1399999999999" />
    </edge>
    <edge id=":J100_5" function="internal">
        <lane id=":J100_5_0" index="0" disallow="pedestrian bicycle tram rail_urban rail rail_electric rail_fast ship" speed="13.89" length="32.32" shape="1186.7399999999998,1304.6 1178.67,1310.99 1172.04,1315.42 1166.69,1319.51 1162.4499999999998,1324.85" />
        <lane id=":J100_5_1" index="1" disallow="pedestrian bicycle tram rail_urban rail rail_electric rail_fast ship" speed="13.89" length="32.32" shape="1184.61,1302.21 1176.28,1308.8600000000001 1169.4499999999998,1313.56 1163.96,1317.8400000000001 1159.6799999999998,1323.26" />
    </edge>
    <edge id=":J100_7" function="internal">
        <lane id=":J100_7_0" index="0" disallow="pedestrian bicycle tram rail_urban rail rail_electric rail_fast ship" speed="12.50" length="33.77" shape="1184.61,1302.21 1177.6399999999999,1305.83 1168.31,1307.6100000000001 1159.11,1307.21 1152.5,1304.33" />
        <lane id=":J100_7_1" index="1" disallow="pedestrian bicycle tram rail_urban rail rail_electric rail_fast ship" speed="11.72" length="29.60" shape="1182.48,1299.82 1176.17,1303.44 1168.31,1305.22 1160.59,1304.8400000000001 1154.6999999999998,1302.0" />
        <lane id=":J100_7_2" index="2" disallow="pedestrian bicycle tram rail_urban rail rail_electric rail_fast ship" speed="10.83" length="25.10" shape="1180.34,1297.44 1174.92,1300.67 1168.33,1302.32 1161.8799999999999,1302.0900000000001 1156.8899999999999,1299.67" />
    </edge>
    <edge id=":J100_10" function="internal">
        <lane id=":J100_10_0" index="0" disallow="pedestrian bicycle tram rail_urban rail rail_electric rail_fast ship" speed="13.89" length="30.93" shape="1165.67,1290.3600000000001 1172.0099999999998,1296.91 1176.04,1301.79 1180.2199999999998,1306.4 1187.05,1312.1399999999999" />
        <lane id=":J100_10_1" index="1" disallow="pedestrian bicycle tram rail_urban rail rail_electric rail_fast ship" speed="13.89" length="30.93" shape="1163.48,1292.69 1169.9099999999999,1299.32 1174.02,1304.27 1178.27,1308.93 1185.12,1314.7" />
        <lane id=":J100_10_2" index="2" disallow="pedestrian bicycle tram rail_urban rail rail_electric rail_fast ship" speed="13.89" length="30.93" shape="1161.28,1295.02 1167.81,1301.74 1172.0099999999998,1306.76 1176.32,1311.47 1183.19,1317.25" />
    </edge>
    <edge id=":J100_13" function="internal">
        <lane id=":J100_13_0" index="0" disallow="pedestrian bicycle tram rail_urban rail rail_electric rail_fast ship" speed="12.19" length="5.18" shape="1159.09,1297.3400000000001 1162.15,1301.51" />
    </edge>
    <edge id=":J100_14" function="internal">
        <lane id=":J100_14_0" index="0" disallow="pedestrian bicycle tram rail_urban rail rail_electric rail_fast ship" speed="5.58" length="1.60" shape="1159.09,1297.3400000000001 1159.4499999999998,1298.9" />
    </edge>
    <edge id=":J100_21" function="internal">
        <lane id=":J100_21_0" index="0" disallow="pedestrian bicycle tram rail_urban rail rail_electric rail_fast ship" speed="12.19" length="22.97" shape="1162.15,1301.51 1162.8899999999999,1302.51 1164.25,1308.56 1163.1799999999998,1315.47 1159.6799999999998,1323.26" />
    </edge>
    <edge id=":J100_22" function="internal">
        <lane id=":J100_22_0" index="0" disallow="pedestrian bicycle tram rail_urban rail rail_electric rail_fast ship" speed="5.58" length="12.42" shape="1159.4499999999998,1298.9 1160.06,1301.56 1159.29,1304.13 1156.77,1305.05 1152.5,1304.33" />
    </edge>
    <edge id=":J100_15" function="internal">
        <lane id=":J100_15_0" index="0" disallow="pedestrian bicycle tram rail_urban rail rail_electric rail_fast ship" speed="13.89" length="35.33" shape="1151.35,1318.48 1156.46,1309.99 1161.2599999999998,1303.25 1166.75,1297.07 1173.9499999999998,1290.28" />
        <lane id=":J100_15_1" index="1" disallow="pedestrian bicycle tram rail_urban rail rail_electric rail_fast ship" speed="13.89" length="35.33" shape="1154.1299999999999,1320.07 1159.1399999999999,1311.71 1163.71,1305.24 1168.98,1299.33 1176.08,1292.66" />
        <lane id=":J100_15_2" index="2" disallow="pedestrian bicycle tram rail_urban rail rail_electric rail_fast ship" speed="13.89" length="35.33" shape="1156.9,1321.67 1161.81,1313.42 1166.1599999999999,1307.23 1171.21,1301.5900000000001 1178.21,1295.05" />
    </edge>
    <edge id=":J100_18" function="internal">
        <lane id=":J100_18_0" index="0" disallow="pedestrian bicycle tram rail_urban rail rail_electric rail_fast ship" speed="10.77" length="29.07" shape="1156.9,1321.67 1161.8799999999999,1316.97 1169.05,1314.56 1176.71,1314.6 1183.19,1317.25" />
    </edge>
    <edge id=":J101_0" function="internal">
        <lane id=":J101_0_0" index="0" disallow="pedestrian bicycle tram rail_urban rail rail_electric rail_fast ship" speed="13.89" length="64.03" shape="1141.1999999999998,1304.5900000000001 1136.46,1296.47 1126.85,1282.17 1114.55,1266.58 1101.77,1254.56" />
    </edge>
    <edge id=":J101_1" function="internal">
        <lane id=":J101_1_0" index="0" disallow="pedestrian bicycle tram rail_urban rail rail_electric rail_fast ship" speed="13.89" length="64.49" shape="1144.82,1301.48 1134.2599999999998,1289.97 1123.98,1277.18 1113.36,1264.8 1101.77,1254.56" />
        <lane id=":J101_1_1" index="1" disallow="pedestrian bicycle tram rail_urban rail rail_electric rail_fast ship" speed="13.89" length="64.49" shape="1147.0099999999998,1299.15 1136.4,1287.6 1126.0,1274.7 1115.2599999999998,1262.23 1103.61,1251.94" />
        <lane id=":J101_1_2" index="2" disallow="pedestrian bicycle tram rail_urban rail rail_electric rail_fast ship" speed="13.89" length="64.49" shape="1149.21,1296.82 1138.54,1285.23 1128.0099999999998,1272.23 1117.15,1259.65 1105.4499999999998,1249.32" />
        <lane id=":J101_1_3" index="3" disallow="pedestrian bicycle tram rail_urban rail rail_electric rail_fast ship" speed="13.89" length="64.49" shape="1151.4,1294.5 1140.6799999999998,1282.85 1130.03,1269.76 1119.04,1257.08 1107.28,1246.7" />
    </edge>
    <edge id=":J101_5" function="internal">
        <lane id=":J101_5_0" index="0" disallow="pedestrian bicycle tram rail_urban rail rail_electric rail_fast ship" speed="13.89" length="45.05" shape="1116.1,1234.1100000000001 1127.9499999999998,1244.5 1136.67,1254.58 1142.85,1262.56 1147.04,1266.68" />
    </edge>
    <edge id=":J101_6" function="internal">
        <lane id=":J101_6_0" index="0" disallow="pedestrian bicycle tram rail_urban rail rail_electric rail_fast ship" speed="13.89" length="66.19" shape="1114.27,1236.74 1127.9,1248.6100000000001 1139.33,1261.35 1149.71,1273.9 1160.19,1285.18" />
        <lane id=":J101_6_1" index="1" disallow="pedestrian bicycle tram rail_urban rail rail_electric rail_fast ship" speed="13.89" length="66.19" shape="1112.4299999999998,1239.3600000000001 1126.0099999999998,1251.18 1137.32,1263.83 1147.57,1276.28 1157.9899999999998,1287.51" />
        <lane id=":J101_6_2" index="2" disallow="pedestrian bicycle tram rail_urban rail rail_electric rail_fast ship" speed="13.89" length="66.19" shape="1110.59,1241.98 1124.12,1253.76 1135.3,1266.3 1145.4299999999998,1278.65 1155.8,1289.8400000000001" />
        <lane id=":J101_6_3" index="3" disallow="pedestrian bicycle tram rail_urban rail rail_electric rail_fast ship" speed="13.89" length="66.19" shape="1108.75,1244.6 1122.2199999999998,1256.33 1133.28,1268.78 1143.29,1281.02 1153.6,1292.17" />
    </edge>
    <edge id=":J102_0" function="internal">
        <lane id=":J102_0_0" index="0" disallow="pedestrian tram rail_urban rail rail_electric rail_fast ship" speed="13.89" length="8.43" shape="2397.89,422.07000000000005 2397.68,413.63" />
        <lane id=":J102_0_1" index="1" disallow="pedestrian tram rail_urban rail rail_electric rail_fast ship" speed="13.89" length="8.43" shape="2401.09,422.02 2400.88,413.61" />
    </edge>
    <edge id=":J102_2" function="internal">
        <lane id=":J102_2_0" index="0" disallow="pedestrian tram rail_urban rail rail_electric rail_fast ship" speed="13.89" length="8.35" shape="2413.68,413.51 2413.89,421.82000000000005" />
        <lane id=":J102_2_1" index="1" disallow="pedestrian tram rail_urban rail rail_electric rail_fast ship" speed="13.89" length="8.35" shape="2410.48,413.53 2410.69,421.87" />
        <lane id=":J102_2_2" index="2" speed="13.89" length="8.35" shape="2407.2799999999997,413.56000000000006 2407.49,421.91999999999996" />
        <lane id=":J102_2_3" index="3" speed="13.89" length="8.35" shape="2404.08,413.58000000000004 2404.29,421.97" />
    </edge>
    <edge id=":J102_6" function="internal">
        <lane id=":J102_6_0" index="0" disallow="pedestrian tram rail_urban rail rail_electric rail_fast ship" speed="13.89" length="8.61" shape="2392.75,421.97 2393.75,419.63 2394.27,417.95000000000005 2394.47,416.20000000000005 2394.48,413.65" />
    </edge>
    <edge id=":J103_0" function="internal">
        <lane id=":J103_0_0" index="0" disallow="pedestrian tram rail_urban rail rail_electric rail_fast ship" speed="13.89" length="8.59" shape="2407.09,509.97 2407.59,512.47 2408.68,514.03 2409.77,515.6 2410.24,518.09" />
        <lane id=":J103_0_1" index="1" speed="13.89" length="8.59" shape="2403.89,509.97 2404.39,512.46 2405.48,514.01 2406.5699999999997,515.5699999999999 2407.04,518.05" />
        <lane id=":J103_0_2" index="2" speed="13.89" length="8.59" shape="2403.89,509.97 2403.84,518.01" />
    </edge>
    <edge id=":J103_3" function="internal">
        <lane id=":J103_3_0" index="0" disallow="pedestrian tram rail_urban rail rail_electric rail_fast ship" speed="13.89" length="8.55" shape="2394.24,517.88 2393.77,515.45 2392.68,513.9300000000001 2391.59,512.4100000000001 2391.09,509.97" />
        <lane id=":J103_3_1" index="1" speed="13.89" length="8.55" shape="2397.44,517.9200000000001 2396.97,515.48 2395.88,513.95 2394.79,512.4200000000001 2394.29,509.97" />
        <lane id=":J103_3_2" index="2" speed="13.89" length="8.55" shape="2400.64,517.97 2400.17,515.51 2399.08,513.97 2397.99,512.4300000000001 2397.49,509.97" />
        <lane id=":J103_3_3" index="3" speed="13.89" length="8.55" shape="2400.64,517.97 2400.69,509.97" />
    </edge>
    <edge id=":J104_0" function="internal">
        <lane id=":J104_0_0" index="0" disallow="pedestrian tram rail_urban rail rail_electric rail_fast ship" speed="10.12" length="11.12" shape="2391.09,484.54 2390.96,480.48 2390.58,477.34000000000003 2389.93,475.12 2389.0299999999997,473.82" />
    </edge>
    <edge id=":J104_1" function="internal">
        <lane id=":J104_1_0" index="0" disallow="pedestrian tram rail_urban rail rail_electric rail_fast ship" speed="13.89" length="11.46" shape="2394.29,484.54 2394.5,473.01" />
        <lane id=":J104_1_1" index="1" speed="13.89" length="11.46" shape="2397.49,484.54 2397.7,473.08" />
        <lane id=":J104_1_2" index="2" speed="13.89" length="11.46" shape="2400.69,484.54 2400.9,473.16" />
    </edge>
    <edge id=":J104_4" function="internal">
        <lane id=":J104_4_0" index="0" disallow="pedestrian tram rail_urban rail rail_electric rail_fast ship" speed="13.89" length="11.28" shape="2407.3,473.3 2407.09,484.54" />
        <lane id=":J104_4_1" index="1" speed="13.89" length="11.28" shape="2404.1,473.23 2403.89,484.54" />
    </edge>
    <edge id=":J105_0" function="internal">
        <lane id=":J105_0_0" index="0" disallow="pedestrian tram rail_urban rail rail_electric rail_fast ship" speed="13.89" length="10.49" shape="2092.19,491.57 2091.17,488.90000000000003 2088.94,487.63 2086.69,486.35 2085.66,483.68" />
        <lane id=":J105_0_1" index="1" speed="13.89" length="10.49" shape="2095.39,491.58 2094.37,488.90000000000003 2092.14,487.62 2089.89,486.34000000000003 2088.8599999999997,483.66" />
        <lane id=":J105_0_2" index="2" speed="13.89" length="10.49" shape="2098.59,491.58 2097.5699999999997,488.90000000000003 2095.34,487.61 2093.09,486.33 2092.06,483.64" />
        <lane id=":J105_0_3" index="3" speed="13.89" length="10.49" shape="2101.79,491.59000000000003 2100.77,488.90000000000003 2098.54,487.61 2096.29,486.32 2095.2599999999998,483.63" />
        <lane id=":J105_0_4" index="4" speed="13.89" length="10.49" shape="2101.79,491.59000000000003 2101.27,489.13 2100.13,487.6 2098.99,486.07 2098.46,483.61" />
    </edge>
    <edge id=":J105_5" function="internal">
        <lane id=":J105_5_0" index="0" disallow="pedestrian tram rail_urban rail rail_electric rail_fast ship" speed="10.82" length="11.43" shape="2120.85,480.88 2119.5099999999998,482.62 2118.56,484.99 2117.98,487.98 2117.79,491.61" />
    </edge>
    <edge id=":J105_6" function="internal">
        <lane id=":J105_6_0" index="0" disallow="pedestrian tram rail_urban rail rail_electric rail_fast ship" speed="13.89" length="8.67" shape="2111.2599999999998,483.55 2111.79,486.03000000000003 2112.93,487.57 2114.0699999999997,489.12 2114.59,491.6" />
        <lane id=":J105_6_1" index="1" speed="13.89" length="8.67" shape="2108.06,483.56 2108.59,486.04 2109.73,487.58 2110.87,489.12 2111.39,491.6" />
        <lane id=":J105_6_2" index="2" speed="13.89" length="8.67" shape="2104.8599999999997,483.58 2105.39,486.05 2106.5299999999997,487.59000000000003 2107.67,489.12 2108.19,491.59000000000003" />
        <lane id=":J105_6_3" index="3" speed="13.89" length="8.67" shape="2104.8599999999997,483.58 2104.99,491.59000000000003" />
    </edge>
    <edge id=":J11_0" function="internal">
        <lane id=":J11_0_0" index="0" disallow="pedestrian bicycle tram rail_urban rail rail_electric rail_fast ship" speed="13.89" length="14.32" shape="1210.1799999999998,952.1 1195.8799999999999,952.04" />
        <lane id=":J11_0_1" index="1" disallow="pedestrian bicycle tram rail_urban rail rail_electric rail_fast ship" speed="13.89" length="14.32" shape="1210.21,948.9 1195.8799999999999,948.84" />
    </edge>
    <edge id=":J11_2" function="internal">
        <lane id=":J11_2_0" index="0" disallow="pedestrian bicycle tram rail_urban rail rail_electric rail_fast ship" speed="8.69" length="3.65" shape="1210.21,948.9 1206.6299999999999,948.17" />
    </edge>
    <edge id=":J11_8" function="internal">
        <lane id=":J11_8_0" index="0" disallow="pedestrian bicycle tram rail_urban rail rail_electric rail_fast ship" speed="8.69" length="13.17" shape="1206.6299999999999,948.17 1206.3899999999999,948.12 1203.6599999999999,945.85 1202.03,942.09 1201.48,936.84" />
    </edge>
    <edge id=":J11_3" function="internal">
        <lane id=":J11_3_0" index="0" disallow="pedestrian bicycle tram rail_urban rail rail_electric rail_fast ship" speed="6.53" length="9.05" shape="1204.6799999999998,936.84 1205.03,939.3 1206.08,941.0600000000001 1207.82,942.13 1210.27,942.5" />
    </edge>
    <edge id=":J11_4" function="internal">
        <lane id=":J11_4_0" index="0" disallow="pedestrian bicycle tram rail_urban rail rail_electric rail_fast ship" speed="8.67" length="16.85" shape="1204.6799999999998,936.84 1204.1299999999999,942.09 1202.48,945.84 1199.73,948.09 1195.8799999999999,948.84" />
    </edge>
    <edge id=":J11_5" function="internal">
        <lane id=":J11_5_0" index="0" disallow="pedestrian bicycle tram rail_urban rail rail_electric rail_fast ship" speed="6.51" length="9.03" shape="1195.8799999999999,942.44 1198.33,942.09 1200.08,941.04 1201.1299999999999,939.29 1201.48,936.84" />
    </edge>
    <edge id=":J11_6" function="internal">
        <lane id=":J11_6_0" index="0" disallow="pedestrian bicycle tram rail_urban rail rail_electric rail_fast ship" speed="13.89" length="14.37" shape="1195.8799999999999,942.44 1210.27,942.5" />
        <lane id=":J11_6_1" index="1" disallow="pedestrian bicycle tram rail_urban rail rail_electric rail_fast ship" speed="13.89" length="14.37" shape="1195.8799999999999,945.64 1210.24,945.7" />
    </edge>
    <edge id=":J116_0" function="internal">
        <lane id=":J116_0_0" index="0" disallow="pedestrian bicycle tram rail_urban rail rail_electric rail_fast ship" speed="13.89" length="40.74" shape="638.1599999999999,891.25 631.3499999999999,885.4300000000001 621.74,879.9300000000001 611.6399999999999,875.01 603.3499999999999,870.97" />
        <lane id=":J116_0_1" index="1" disallow="pedestrian bicycle tram rail_urban rail rail_electric rail_fast ship" speed="13.89" length="40.74" shape="640.1499999999999,888.6 633.26,882.76 623.49,877.19 613.22,872.22 604.8499999999999,868.14" />
    </edge>
    <edge id=":J116_2" function="internal">
        <lane id=":J116_2_0" index="0" disallow="pedestrian bicycle tram rail_urban rail rail_electric rail_fast ship" speed="13.89" length="52.61" shape="609.8399999999999,841.82 613.8,846.97 622.98,854.65 635.73,864.22 650.3799999999999,875.02" />
    </edge>
    <edge id=":J116_3" function="internal">
        <lane id=":J116_3_0" index="0" disallow="pedestrian bicycle tram rail_urban rail rail_electric rail_fast ship" speed="13.89" length="52.80" shape="605.55,847.41 614.6699999999998,853.58 624.8299999999999,859.14 636.56,865.73 650.3799999999999,875.02" />
        <lane id=":J116_3_1" index="1" disallow="pedestrian bicycle tram rail_urban rail rail_electric rail_fast ship" speed="13.89" length="52.80" shape="603.54,849.9 612.6799999999998,856.09 622.8599999999999,861.66 634.6199999999999,868.28 648.4499999999998,877.58" />
        <lane id=":J116_3_2" index="2" disallow="pedestrian bicycle tram rail_urban rail rail_electric rail_fast ship" speed="13.89" length="52.80" shape="601.54,852.4 610.6899999999998,858.59 620.8999999999999,864.19 632.6799999999998,870.82 646.53,880.14" />
    </edge>
    <edge id=":J116_6" function="internal">
        <lane id=":J116_6_0" index="0" disallow="pedestrian bicycle tram rail_urban rail rail_electric rail_fast ship" speed="13.89" length="41.78" shape="607.8599999999999,862.49 614.96,865.87 623.23,869.66 633.01,874.91 644.5999999999999,882.69" />
        <lane id=":J116_6_1" index="1" disallow="pedestrian bicycle tram rail_urban rail rail_electric rail_fast ship" speed="13.89" length="41.78" shape="606.3599999999999,865.32 613.4199999999998,868.6700000000001 621.5999999999999,872.4 631.23,877.58 642.6799999999998,885.25" />
    </edge>
    <edge id=":J12_0" function="internal">
        <lane id=":J12_0_0" index="0" disallow="pedestrian bicycle tram rail_urban rail rail_electric rail_fast ship" speed="6.59" length="9.12" shape="1339.62,958.91 1339.23,956.42 1338.1599999999999,954.64 1336.4099999999999,953.5600000000001 1333.9699999999998,953.19" />
    </edge>
    <edge id=":J12_1" function="internal">
        <lane id=":J12_1_0" index="0" disallow="pedestrian bicycle tram rail_urban rail rail_electric rail_fast ship" speed="8.65" length="16.91" shape="1339.62,958.91 1340.09,953.63 1341.69,949.86 1344.4299999999998,947.58 1348.31,946.8" />
    </edge>
    <edge id=":J12_2" function="internal">
        <lane id=":J12_2_0" index="0" disallow="pedestrian bicycle tram rail_urban rail rail_electric rail_fast ship" speed="6.48" length="9.03" shape="1348.35,953.2 1345.8899999999999,953.57 1344.1599999999999,954.63 1343.1299999999999,956.4 1342.82,958.86" />
    </edge>
    <edge id=":J12_3" function="internal">
        <lane id=":J12_3_0" index="0" disallow="pedestrian bicycle tram rail_urban rail rail_electric rail_fast ship" speed="13.89" length="14.35" shape="1348.35,953.2 1333.9699999999998,953.19" />
        <lane id=":J12_3_1" index="1" disallow="pedestrian bicycle tram rail_urban rail rail_electric rail_fast ship" speed="13.89" length="14.35" shape="1348.33,950.0 1334.0,949.99" />
    </edge>
    <edge id=":J12_5" function="internal">
        <lane id=":J12_5_0" index="0" disallow="pedestrian bicycle tram rail_urban rail rail_electric rail_fast ship" speed="13.89" length="14.26" shape="1334.05,943.59 1348.29,943.6" />
        <lane id=":J12_5_1" index="1" disallow="pedestrian bicycle tram rail_urban rail rail_electric rail_fast ship" speed="13.89" length="14.26" shape="1334.03,946.79 1348.31,946.8" />
    </edge>
    <edge id=":J12_7" function="internal">
        <lane id=":J12_7_0" index="0" disallow="pedestrian bicycle tram rail_urban rail rail_electric rail_fast ship" speed="8.74" length="3.56" shape="1334.03,946.79 1337.51,947.51" />
    </edge>
    <edge id=":J12_8" function="internal">
        <lane id=":J12_8_0" index="0" disallow="pedestrian bicycle tram rail_urban rail rail_electric rail_fast ship" speed="8.74" length="13.25" shape="1337.51,947.51 1337.8,947.57 1340.52,949.84 1342.1999999999998,953.6 1342.82,958.86" />
    </edge>
    <edge id=":J122_0" function="internal">
        <lane id=":J122_0_0" index="0" disallow="pedestrian bicycle tram rail_urban rail rail_electric rail_fast ship" speed="13.89" length="7.93" shape="751.2099999999999,954.09 757.4999999999999,958.55" />
        <lane id=":J122_0_1" index="1" disallow="pedestrian bicycle tram rail_urban rail rail_electric rail_fast ship" speed="13.89" length="7.93" shape="749.3,956.66 755.7099999999999,961.2" />